"FMS Model results"
0001 1 1 0 0 0
# = output files =
# file_name, output_freq, output_units, format, time_units, long_name
 "4xday",          6,   "hours", 1, "days",    "time",
 "1x5days",        120, "hours", 1, "days",    "time",
 "1x30days",       720, "hours", 1, "days",    "time",
 "atmos_hourly",   1,   "hours", 1, "hours", "time",
 "atmos_daily",    1,   "days",  1, "days", "time",
 "atmos_4xdaily",  6,   "hours", 1, "days", "time",
 "atmos_avg",     -1,   "days",  1, "days",    "time",
# = diagnostic field entries =
# module_name, field_name, output_name, file_name, time_sampling, time_avg, other_opts, precision
 "atmosphere",      "convection_rain",     "convection_rain",    "atmos_4xdaily",     "all", .true., "none", 2,
 "dynamics",  	    "slp",                 "slp",                "atmos_4xdaily",     "all", .true., "none", 2, 
 "dynamics",        "temp",                "temp",               "atmos_4xdaily",     "all", .true., "none", 2,
 "rrtm_radiation",  "tdt_rad",             "tdt_rad",            "atmos_4xdaily",     "all", .true., "none", 2,
 "dynamics",        "ucomp",               "ucomp",              "atmos_4xdaily",     "all", .true., "none", 2,
 "dynamics",        "ps",                  "ps",                 "atmos_daily",       "all", .true., "none", 2,
 "dynamics",        "bk",                  "bk",                 "atmos_daily",       "all", .false., "none", 2,
 "dynamics",        "pk",                  "pk",                 "atmos_daily",       "all", .false., "none", 2,
 "dynamics",        "vor",         	   "vor",	         "atmos_daily",       "all", .true., "none", 2,
 "dynamics",        "div",         	   "div",	         "atmos_daily",       "all", .true., "none", 2,
 "dynamics",        "ucomp",               "ucomp",              "atmos_daily",       "all", .true., "none", 2,
 "dynamics",        "vcomp",               "vcomp",              "atmos_daily",       "all", .true., "none", 2,
 "dynamics",        "temp",                "temp",               "atmos_daily",       "all", .true., "none", 2,
 "atmosphere",      "rh",                  "rh",                 "atmos_daily",       "all", .true., "none", 2,
 "dynamics",  	    "slp",                 "slp",                "atmos_daily",       "all", .true., "none", 2, 
 "dynamics",  	    "omega",               "omega",              "atmos_daily",       "all", .true., "none", 2, 
 "dynamics",  	    "height",              "height",             "atmos_daily",       "all", .true., "none", 2, 
 "dynamics",  	    "height_half",              "height_half",             "atmos_daily",       "all", .true., "none", 2, 
 "mixed_layer",     "t_surf",              "t_surf",             "atmos_daily",       "all", .true., "none", 2,
 "atmosphere",      "convection_rain",     "convection_rain",    "atmos_daily",       "all", .true., "none", 2,
 "atmosphere",      "condensation_rain",   "condensation_rain",  "atmos_daily",       "all", .true., "none", 2,
 "rrtm_radiation",  "tdt_rad",             "tdt_rad",            "atmos_daily",       "all", .true., "none", 2,
 "rrtm_radiation",  "flux_sw",             "flux_sw",            "atmos_daily",       "all", .true., "none", 2,
 "rrtm_radiation",  "flux_lw",             "flux_lw",            "atmos_daily",       "all", .true., "none", 2,
 "rrtm_radiation",  "rrtm_albedo",         "rrtm_albedo",        "atmos_daily",       "all", .true., "none", 2,
 "rrtm_radiation",  "tdt_sw",              "tdt_sw",             "atmos_daily",       "all", .true., "none", 2,
 "rrtm_radiation",  "tdt_lw",              "tdt_lw",             "atmos_daily",       "all", .true., "none", 2,
 "damping",         "udt_rdamp",           "udt_rdamp",          "atmos_daily",       "all", .true., "none", 2,
 "damping",         "vdt_rdamp",           "vdt_rdamp",          "atmos_daily",       "all", .true., "none", 2,
 "damping",         "tdt_diss_rdamp",      "tdt_diss_rdamp",     "atmos_daily",       "all", .true., "none", 2,
 "vert_turb",       "z_pbl",               "z_pbl",              "atmos_daily",       "all", .true., "none", 2,
 "mixed_layer",     "flux_lhe",            "flux_lhe",           "atmos_daily",       "all", .true., "none", 2,
 "mixed_layer",     "ml_heat_cap",         "ml_heat_cap",        "atmos_daily",       "all", .true., "none", 2,
#=============================================================================================
#
#  FORMATS FOR FILE ENTRIES (not all input values are used)
#  ------------------------
#
#"file_name", output_freq, "output_units", format, "time_units", "long_name"
#
#
#   output_freq:  > 0  output frequency in "output_units"
#                 = 0  output frequency every time step
#                 =-1  output frequency at end of run
#
#   output_units = units used for output frequency
#                  (years, months, days, minutes, hours, seconds)
#
#   time_units   = units used to label the time axis
#                  (days, minutes, hours, seconds)
#
#
#  FORMAT FOR FIELD ENTRIES (not all input values are used)
#  ------------------------
#
#"module_name", "field_name", "output_name", "file_name", "time_sampling", time_avg, "other_opts", packing
#
#   time_avg = .true. or .false.
#
#   packing  = 1  double precision
#            = 2  float
#            = 4  packed 16-bit integers
#            = 8  packed 1-byte (not tested?)
